electric-grid/physical/smallsignal/simplified-14gen-australia/models/lf_case04_r4_s/au14genmodel.epc
title
LF_CASE04_R3_S   14-GEN. SIMPLIFIED MODEL OF THE 4-STATE
SYSTEM: LIGHTLD AREA4<-AREA2->AREA3->AREA5 200-200-200MW
!
comments
!
solution parameters
tap    1    tcul  enabled/disabled
phas   1    ps    enabled/disabled
area   1    area  enabled/disabled
svd    1    svd   enabled/disabled
dctap  1    dc    enabled/disabled
gcd    0    gcd   enabled/disabled
jump  0.000200    jumper threshold
toler   0.1000    newton tolerance
sbase 100.0000    system mva base
!
bus data  [59]               ty  vsched   volt     angle    ar zone  vmax   vmin   date_in date_out pid L own st  latitude  longitude island    sdmon   vmax1      vmin1      dvmax
    101 "1_HPSGEN    "  15.0000 :  2 1.00000 1.000000 -21.61135   1    1 1.1000 0.9000   400101   391231   0 0   1 0    0.00000    0.00000 0    0.00000    0.00000    0.00000
    102 "1_HPS330    " 330.0000 :  1 1.035048 1.035048 -21.61136   1    1 1.1000 0.9000   400101   391231   0 0   1 0    0.00000    0.00000 0    0.00000    0.00000    0.00000
    201 "2_BPSGEN    "  20.0000 :  2 1.00000 1.000000   5.88892   2    1 1.1000 0.9000   400101   391231   0 0   1 0    0.00000    0.00000 0    0.00000    0.00000    0.00000
    202 "2_EPSGEN    "  20.0000 :  2 1.00000 1.000000   1.52700   2    1 1.1000 0.9000   400101   391231   0 0   1 0    0.00000    0.00000 0    0.00000    0.00000    0.00000
    203 "2_VPSGEN    "  20.0000 :  2 1.00000 1.000000   1.19297   2    1 1.1000 0.9000   400101   391231   0 0   1 0    0.00000    0.00000 0    0.00000    0.00000    0.00000
    204 "2_MPSGEN    "  20.0000 :  0 1.00000 1.000000   0.00000   2    1 1.1000 0.9000   400101   391231   0 0   1 0    0.00000    0.00000 0    0.00000    0.00000    0.00000
    205 "2_ASV330    " 330.0000 :  2 1.04500 1.045000 -10.70091   2    1 1.1000 0.9000   400101   391231   0 0   1 0    0.00000    0.00000 0    0.00000    0.00000    0.00000
    206 "2_BPS330    " 330.0000 :  1 1.015697 1.015697  -1.44185   2    1 1.1000 0.9000   400101   391231   0 0   1 0    0.00000    0.00000 0    0.00000    0.00000    0.00000
    207 "2_N__330    " 330.0000 :  1 1.003082 1.003082  -7.45759   2    1 1.1000 0.9000   400101   391231   0 0   1 0    0.00000    0.00000 0    0.00000    0.00000    0.00000
    208 "2_VPS330    " 330.0000 :  1 1.007437 1.007437  -7.01451   2    1 1.1000 0.9000   400101   391231   0 0   1 0    0.00000    0.00000 0    0.00000    0.00000    0.00000
    209 "2_EPS330    " 330.0000 :  1 1.009437 1.009437  -6.01434   2    1 1.1000 0.9000   400101   391231   0 0   1 0    0.00000    0.00000 0    0.00000    0.00000    0.00000
    210 "2_EPS500    " 500.0000 :  1 1.045849 1.045849  -8.27003   2    1 1.1000 0.9000   400101   391231   0 0   1 0    0.00000    0.00000 0    0.00000    0.00000    0.00000
    211 "2_SN_330    " 330.0000 :  1 1.014443 1.014443 -12.53324   2    1 1.1000 0.9000   400101   391231   0 0   1 0    0.00000    0.00000 0    0.00000    0.00000    0.00000
    212 "2_SW_330    " 330.0000 :  1 1.023236 1.023236 -12.80363   2    1 1.1000 0.9000   400101   391231   0 0   1 0    0.00000    0.00000 0    0.00000    0.00000    0.00000
    213 "2_K__500    " 500.0000 :  1 1.044843 1.044843 -10.65577   2    1 1.1000 0.9000   400101   391231   0 0   1 0    0.00000    0.00000 0    0.00000    0.00000    0.00000
    214 "2_K__330    " 330.0000 :  1 1.037408 1.037408 -12.90124   2    1 1.1000 0.9000   400101   391231   0 0   1 0    0.00000    0.00000 0    0.00000    0.00000    0.00000
    215 "2_MPS330    " 330.0000 :  1 1.014985 1.014985  -5.41771   2    1 1.1000 0.9000   400101   391231   0 0   1 0    0.00000    0.00000 0    0.00000    0.00000    0.00000
    216 "2_SS_330    " 330.0000 :  1 1.034477 1.034477 -14.67557   2    1 1.1000 0.9000   400101   391231   0 0   1 0    0.00000    0.00000 0    0.00000    0.00000    0.00000
    217 "2_YC_330    " 330.0000 :  1 1.032224 1.032224 -17.45852   2    1 1.1000 0.9000   400101   391231   0 0   1 0    0.00000    0.00000 0    0.00000    0.00000    0.00000
    301 "3_LPSGEN    "  20.0000 :  2 1.00000 1.000000  -6.37597   3    1 1.1000 0.9000   400101   391231   0 0   1 0    0.00000    0.00000 0    0.00000    0.00000    0.00000
    302 "3_YPSGEN    "  20.0000 :  2 1.00000 1.000000 -15.37590   3    1 1.1000 0.9000   400101   391231   0 0   1 0    0.00000    0.00000 0    0.00000    0.00000    0.00000
    303 "3_LPS500    " 500.0000 :  1 1.004875 1.004875 -13.99315   3    1 1.1000 0.9000   400101   391231   0 0   1 0    0.00000    0.00000 0    0.00000    0.00000    0.00000
    304 "3_R__500    " 500.0000 :  1 1.005416 1.005416 -22.89611   3    1 1.1000 0.9000   400101   391231   0 0   1 0    0.00000    0.00000 0    0.00000    0.00000    0.00000
    305 "3_SM_500    " 500.0000 :  1 1.016298 1.016298 -24.00741   3    1 1.1000 0.9000   400101   391231   0 0   1 0    0.00000    0.00000 0    0.00000    0.00000    0.00000
    306 "3_K__500    " 500.0000 :  1 1.018295 1.018295 -25.57217   3    1 1.1000 0.9000   400101   391231   0 0   1 0    0.00000    0.00000 0    0.00000    0.00000    0.00000
    307 "3_M__500    " 500.0000 :  1 1.020734 1.020734 -25.60520   3    1 1.1000 0.9000   400101   391231   0 0   1 0    0.00000    0.00000 0    0.00000    0.00000    0.00000
    308 "3_H__500    " 500.0000 :  1 1.044097 1.044097 -32.95035   3    1 1.1000 0.9000   400101   391231   0 0   1 0    0.00000    0.00000 0    0.00000    0.00000    0.00000
    309 "3_D__330    " 330.0000 :  1 1.041841 1.041841 -23.24768   3    1 1.1000 0.9000   400101   391231   0 0   1 0    0.00000    0.00000 0    0.00000    0.00000    0.00000
    310 "3_SS_330    " 330.0000 :  1 1.007759 1.007759 -24.16580   3    1 1.1000 0.9000   400101   391231   0 0   1 0    0.00000    0.00000 0    0.00000    0.00000    0.00000
    311 "3_SM_330    " 330.0000 :  1 1.037460 1.037460 -23.62675   3    1 1.1000 0.9000   400101   391231   0 0   1 0    0.00000    0.00000 0    0.00000    0.00000    0.00000
    312 "3_YPS220    " 220.0000 :  1 1.011317 1.011317 -22.67233   3    1 1.1000 0.9000   400101   391231   0 0   1 0    0.00000    0.00000 0    0.00000    0.00000    0.00000
    313 "3_RSV220    " 220.0000 :  2 1.01500 1.015000 -28.36406   3    1 1.1000 0.9000   400101   391231   0 0   1 0    0.00000    0.00000 0    0.00000    0.00000    0.00000
    314 "3_SM_220    " 220.0000 :  1 1.016152 1.016152 -27.43346   3    1 1.1000 0.9000   400101   391231   0 0   1 0    0.00000    0.00000 0    0.00000    0.00000    0.00000
    315 "3_H__275    " 275.0000 :  1 1.042660 1.042660 -34.37104   3    1 1.1000 0.9000   400101   391231   0 0   1 0    0.00000    0.00000 0    0.00000    0.00000    0.00000
    401 "4_TPSGEN    "  20.0000 :  2 1.00000 1.000000 -13.10235   4    1 1.1000 0.9000   400101   391231   0 0   1 0    0.00000    0.00000 0    0.00000    0.00000    0.00000
    402 "4_CPSGEN    "  20.0000 :  2 1.00000 1.000000   2.21761   4    1 1.1000 0.9000   400101   391231   0 0   1 0    0.00000    0.00000 0    0.00000    0.00000    0.00000
    403 "4_SPSGEN    "  20.0000 :  2 1.00000 1.000000   1.95506   4    1 1.1000 0.9000   400101   391231   0 0   1 0    0.00000    0.00000 0    0.00000    0.00000    0.00000
    404 "4_GPSGEN    "  20.0000 :  2 1.00000 1.000000  -4.72644   4    1 1.1000 0.9000   400101   391231   0 0   1 0    0.00000    0.00000 0    0.00000    0.00000    0.00000
    405 "4_GPS275    " 275.0000 :  1 1.007882 1.007882 -11.03049   4    1 1.1000 0.9000   400101   391231   0 0   1 0    0.00000    0.00000 0    0.00000    0.00000    0.00000
    406 "4_N__275    " 275.0000 :  1 0.999289 0.999289  -6.20016   4    1 1.1000 0.9000   400101   391231   0 0   1 0    0.00000    0.00000 0    0.00000    0.00000    0.00000
    407 "4_SPS275    " 275.0000 :  1 1.001055 1.001055  -4.24947   4    1 1.1000 0.9000   400101   391231   0 0   1 0    0.00000    0.00000 0    0.00000    0.00000    0.00000
    408 "4_CPS275    " 275.0000 :  1 1.012064 1.012064  -6.18552   4    1 1.1000 0.9000   400101   391231   0 0   1 0    0.00000    0.00000 0    0.00000    0.00000    0.00000
    409 "4_W__275    " 275.0000 :  1 1.032887 1.032887 -21.26174   4    1 1.1000 0.9000   400101   391231   0 0   1 0    0.00000    0.00000 0    0.00000    0.00000    0.00000
    410 "4_TPS275    " 275.0000 :  1 1.013188 1.013188 -19.23230   4    1 1.1000 0.9000   400101   391231   0 0   1 0    0.00000    0.00000 0    0.00000    0.00000    0.00000
    411 "4_SP_275    " 275.0000 :  1 1.006292 1.006292 -25.80849   4    1 1.1000 0.9000   400101   391231   0 0   1 0    0.00000    0.00000 0    0.00000    0.00000    0.00000
    412 "4_BW_275    " 275.0000 :  2 1.00000 1.000000 -25.93303   4    1 1.1000 0.9000   400101   391231   0 0   1 0    0.00000    0.00000 0    0.00000    0.00000    0.00000
    413 "4_BR_275    " 275.0000 :  1 1.046488 1.046488 -16.82071   4    1 1.1000 0.9000   400101   391231   0 0   1 0    0.00000    0.00000 0    0.00000    0.00000    0.00000
    414 "4_BR_330    " 330.0000 :  1 1.033160 1.033160 -16.55465   4    1 1.1000 0.9000   400101   391231   0 0   1 0    0.00000    0.00000 0    0.00000    0.00000    0.00000
    415 "4_BU_330    " 330.0000 :  1 1.044574 1.044574 -15.32725   4    1 1.1000 0.9000   400101   391231   0 0   1 0    0.00000    0.00000 0    0.00000    0.00000    0.00000
    416 "4_DU_330    " 330.0000 :  1 1.054363 1.054363 -13.05964   4    1 1.1000 0.9000   400101   391231   0 0   1 0    0.00000    0.00000 0    0.00000    0.00000    0.00000
    501 "5_NPSGEN    "  20.0000 :  2 1.00000 1.000000 -31.42575   5    1 1.1000 0.9000   400101   391231   0 0   1 0    0.00000    0.00000 0    0.00000    0.00000    0.00000
    502 "5_TPSGEN    "  15.0000 :  2 1.00000 1.000000 -32.98985   5    1 1.1000 0.9000   400101   391231   0 0   1 0    0.00000    0.00000 0    0.00000    0.00000    0.00000
    503 "5_PPSGEN    "  15.0000 :  2 1.00000 1.000000 -32.45420   5    1 1.1000 0.9000   400101   391231   0 0   1 0    0.00000    0.00000 0    0.00000    0.00000    0.00000
    504 "5_D__275    " 275.0000 :  1 1.036670 1.036670 -39.34335   5    1 1.1000 0.9000   400101   391231   0 0   1 0    0.00000    0.00000 0    0.00000    0.00000    0.00000
    505 "5_TPS275    " 275.0000 :  1 1.007771 1.007771 -39.55275   5    1 1.1000 0.9000   400101   391231   0 0   1 0    0.00000    0.00000 0    0.00000    0.00000    0.00000
    506 "5_PPS275    " 275.0000 :  1 1.009009 1.009009 -41.00352   5    1 1.1000 0.9000   400101   391231   0 0   1 0    0.00000    0.00000 0    0.00000    0.00000    0.00000
    507 "5_PSV275    " 275.0000 :  2 1.01000 1.010000 -41.53742   5    1 1.1000 0.9000   400101   391231   0 0   1 0    0.00000    0.00000 0    0.00000    0.00000    0.00000
    508 "5_CG_275    " 275.0000 :  1 1.004693 1.004693 -41.62202   5    1 1.1000 0.9000   400101   391231   0 0   1 0    0.00000    0.00000 0    0.00000    0.00000    0.00000
    509 "5_SSV275    " 275.0000 :  2 1.03000 1.030000 -36.98392   5    1 1.1000 0.9000   400101   391231   0 0   1 0    0.00000    0.00000 0    0.00000    0.00000    0.00000
branch data  [  104]                                          ck  se  ------------long_id_------------    st resist   react   charge   rate1  rate2  rate3  rate4 aloss  lngth 
    102 "1_HPS330    " 330.00     217 "2_YC_330    " 330.00  "1 "  1 "                                " :  1  0.008400  0.066700  0.817000    0.0    0.0    0.0    0.0 0.000    0.0 /
   2    1  0.000000  0.000000  1.000000   400101   391231   0 1  0    0.0    0.0    0.0    0.0   1 1.000   0 0.000   0 0.000   0 0.000   0 0.000   0 0.000   0 0.000   0 0.000  0 0 
    102 "1_HPS330    " 330.00     217 "2_YC_330    " 330.00  "2 "  1 "                                " :  1  0.008400  0.066700  0.817000    0.0    0.0    0.0    0.0 0.000    0.0 /
   2    1  0.000000  0.000000  1.000000   400101   391231   0 1  0    0.0    0.0    0.0    0.0   1 1.000   0 0.000   0 0.000   0 0.000   0 0.000   0 0.000   0 0.000   0 0.000  0 0 
    102 "1_HPS330    " 330.00     217 "2_YC_330    " 330.00  "3 "  1 "                                " :  1  0.007800  0.062000  0.760000    0.0    0.0    0.0    0.0 0.000    0.0 /
   2    1  0.000000  0.000000  1.000000   400101   391231   0 1  0    0.0    0.0    0.0    0.0   1 1.000   0 0.000   0 0.000   0 0.000   0 0.000   0 0.000   0 0.000   0 0.000  0 0 
    102 "1_HPS330    " 330.00     217 "2_YC_330    " 330.00  "4 "  1 "                                " :  1  0.007800  0.062000  0.760000    0.0    0.0    0.0    0.0 0.000    0.0 /
   2    1  0.000000  0.000000  1.000000   400101   391231   0 1  0    0.0    0.0    0.0    0.0   1 1.000   0 0.000   0 0.000   0 0.000   0 0.000   0 0.000   0 0.000   0 0.000  0 0 
    102 "1_HPS330    " 330.00     309 "3_D__330    " 330.00  "1 "  1 "                                " :  1  0.004500  0.035600  0.437000    0.0    0.0    0.0    0.0 0.000    0.0 /
   3    1  0.000000  0.000000  1.000000   400101   391231   0 1  0    0.0    0.0    0.0    0.0   1 1.000   0 0.000   0 0.000   0 0.000   0 0.000   0 0.000   0 0.000   0 0.000  0 0 
    102 "1_HPS330    " 330.00     309 "3_D__330    " 330.00  "2 "  1 "                                " :  1  0.004500  0.035600  0.437000    0.0    0.0    0.0    0.0 0.000    0.0 /
   3    1  0.000000  0.000000  1.000000   400101   391231   0 1  0    0.0    0.0    0.0    0.0   1 1.000   0 0.000   0 0.000   0 0.000   0 0.000   0 0.000   0 0.000   0 0.000  0 0 
    102 "1_HPS330    " 330.00     309 "3_D__330    " 330.00  "3 "  1 "                                " :  1  0.010900  0.086800  0.760000    0.0    0.0    0.0    0.0 0.000    0.0 /
   3    1  0.000000  0.000000  1.000000   400101   391231   0 1  0    0.0    0.0    0.0    0.0   1 1.000   0 0.000   0 0.000   0 0.000   0 0.000   0 0.000   0 0.000   0 0.000  0 0 
    205 "2_ASV330    " 330.00     206 "2_BPS330    " 330.00  "1 "  1 "                                " :  1  0.009600  0.076000  0.931000    0.0    0.0    0.0    0.0 0.000    0.0 /
   2    1  0.000000  0.000000  1.000000   400101   391231   0 1  0    0.0    0.0    0.0    0.0   1 1.000   0 0.000   0 0.000   0 0.000   0 0.000   0 0.000   0 0.000   0 0.000  0 0 
    205 "2_ASV330    " 330.00     206 "2_BPS330    " 330.00  "2 "  1 "                                " :  1  0.009600  0.076000  0.931000    0.0    0.0    0.0    0.0 0.000    0.0 /
   2    1  0.000000  0.000000  1.000000   400101   391231   0 1  0    0.0    0.0    0.0    0.0   1 1.000   0 0.000   0 0.000   0 0.000   0 0.000   0 0.000   0 0.000   0 0.000  0 0 
    205 "2_ASV330    " 330.00     416 "4_DU_330    " 330.00  "1 "  1 "                                " :  1  0.003700  0.046000  0.730000    0.0    0.0    0.0    0.0 0.000    0.0 /
   4    1  0.000000  0.000000  1.000000   400101   391231   0 1  0    0.0    0.0    0.0    0.0   1 1.000   0 0.000   0 0.000   0 0.000   0 0.000   0 0.000   0 0.000   0 0.000  0 0 
    205 "2_ASV330    " 330.00     416 "4_DU_330    " 330.00  "2 "  1 "                                " :  1  0.003700  0.046000  0.730000    0.0    0.0    0.0    0.0 0.000    0.0 /
   4    1  0.000000  0.000000  1.000000   400101   391231   0 1  0    0.0    0.0    0.0    0.0   1 1.000   0 0.000   0 0.000   0 0.000   0 0.000   0 0.000   0 0.000   0 0.000  0 0 
    206 "2_BPS330    " 330.00     207 "2_N__330    " 330.00  "1 "  1 "                                " :  1  0.004500  0.035600  0.437000    0.0    0.0    0.0    0.0 0.000    0.0 /
   2    1  0.000000  0.000000  1.000000   400101   391231   0 1  0    0.0    0.0    0.0    0.0   1 1.000   0 0.000   0 0.000   0 0.000   0 0.000   0 0.000   0 0.000   0 0.000  0 0 
    206 "2_BPS330    " 330.00     207 "2_N__330    " 330.00  "2 "  1 "                                " :  1  0.004500  0.035600  0.437000    0.0    0.0    0.0    0.0 0.000    0.0 /
   2    1  0.000000  0.000000  1.000000   400101   391231   0 1  0    0.0    0.0    0.0    0.0   1 1.000   0 0.000   0 0.000   0 0.000   0 0.000   0 0.000   0 0.000   0 0.000  0 0 
    206 "2_BPS330    " 330.00     212 "2_SW_330    " 330.00  "1 "  1 "                                " :  1  0.006600  0.052700  0.646000    0.0    0.0    0.0    0.0 0.000    0.0 /
   2    1  0.000000  0.000000  1.000000   400101   391231   0 1  0    0.0    0.0    0.0    0.0   1 1.000   0 0.000   0 0.000   0 0.000   0 0.000   0 0.000   0 0.000   0 0.000  0 0 
    206 "2_BPS330    " 330.00     212 "2_SW_330    " 330.00  "2 "  1 "                                " :  1  0.006600  0.052700  0.646000    0.0    0.0    0.0    0.0 0.000    0.0 /
   2    1  0.000000  0.000000  1.000000   400101   391231   0 1  0    0.0    0.0    0.0    0.0   1 1.000   0 0.000   0 0.000   0 0.000   0 0.000   0 0.000   0 0.000   0 0.000  0 0 
    206 "2_BPS330    " 330.00     215 "2_MPS330    " 330.00  "1 "  1 "                                " :  1  0.006600  0.052700  0.646000    0.0    0.0    0.0    0.0 0.000    0.0 /
   2    1  0.000000  0.000000  1.000000   400101   391231   0 1  0    0.0    0.0    0.0    0.0   1 1.000   0 0.000   0 0.000   0 0.000   0 0.000   0 0.000   0 0.000   0 0.000  0 0 
    206 "2_BPS330    " 330.00     215 "2_MPS330    " 330.00  "2 "  1 "                                " :  1  0.006600  0.052700  0.646000    0.0    0.0    0.0    0.0 0.000    0.0 /
   2    1  0.000000  0.000000  1.000000   400101   391231   0 1  0    0.0    0.0    0.0    0.0   1 1.000   0 0.000   0 0.000   0 0.000   0 0.000   0 0.000   0 0.000   0 0.000  0 0 
    207 "2_N__330    " 330.00     208 "2_VPS330    " 330.00  "1 "  1 "                                " :  1  0.001800  0.014000  0.171000    0.0    0.0    0.0    0.0 0.000    0.0 /
   2    1  0.000000  0.000000  1.000000   400101   391231   0 1  0    0.0    0.0    0.0    0.0   1 1.000   0 0.000   0 0.000   0 0.000   0 0.000   0 0.000   0 0.000   0 0.000  0 0 
    207 "2_N__330    " 330.00     208 "2_VPS330    " 330.00  "2 "  1 "                                " :  1  0.001800  0.014000  0.171000    0.0    0.0    0.0    0.0 0.000    0.0 /
   2    1  0.000000  0.000000  1.000000   400101   391231   0 1  0    0.0    0.0    0.0    0.0   1 1.000   0 0.000   0 0.000   0 0.000   0 0.000   0 0.000   0 0.000   0 0.000  0 0 
    207 "2_N__330    " 330.00     209 "2_EPS330    " 330.00  "1 "  1 "                                " :  1  0.000800  0.006200  0.076000    0.0    0.0    0.0    0.0 0.000    0.0 /
   2    1  0.000000  0.000000  1.000000   400101   391231   0 1  0    0.0    0.0    0.0    0.0   1 1.000   0 0.000   0 0.000   0 0.000   0 0.000   0 0.000   0 0.000   0 0.000  0 0 
    208 "2_VPS330    " 330.00     211 "2_SN_330    " 330.00  "1 "  1 "                                " :  1  0.003100  0.024800  0.304000    0.0    0.0    0.0    0.0 0.000    0.0 /
   2    1  0.000000  0.000000  1.000000   400101   391231   0 1  0    0.0    0.0    0.0    0.0   1 1.000   0 0.000   0 0.000   0 0.000   0 0.000   0 0.000   0 0.000   0 0.000  0 0 
    208 "2_VPS330    " 330.00     211 "2_SN_330    " 330.00  "2 "  1 "                                " :  1  0.003100  0.024800  0.304000    0.0    0.0    0.0    0.0 0.000    0.0 /
   2    1  0.000000  0.000000  1.000000   400101   391231   0 1  0    0.0    0.0    0.0    0.0   1 1.000   0 0.000   0 0.000   0 0.000   0 0.000   0 0.000   0 0.000   0 0.000  0 0 
    208 "2_VPS330    " 330.00     211 "2_SN_330    " 330.00  "3 "  1 "                                " :  1  0.003100  0.024800  0.304000    0.0    0.0    0.0    0.0 0.000    0.0 /
   2    1  0.000000  0.000000  1.000000   400101   391231   0 1  0    0.0    0.0    0.0    0.0   1 1.000   0 0.000   0 0.000   0 0.000   0 0.000   0 0.000   0 0.000   0 0.000  0 0 
    209 "2_EPS330    " 330.00     212 "2_SW_330    " 330.00  "1 "  1 "                                " :  1  0.004500  0.035600  0.437000    0.0    0.0    0.0    0.0 0.000    0.0 /
   2    1  0.000000  0.000000  1.000000   400101   391231   0 1  0    0.0    0.0    0.0    0.0   1 1.000   0 0.000   0 0.000   0 0.000   0 0.000   0 0.000   0 0.000   0 0.000  0 0 
    210 "2_EPS500    " 500.00     213 "2_K__500    " 500.00  "1 "  1 "                                " :  1  0.001000  0.014500  1.540000    0.0    0.0    0.0    0.0 0.000    0.0 /
   2    1  0.000000  0.000000  1.000000   400101   391231   0 1  0    0.0    0.0    0.0    0.0   1 1.000   0 0.000   0 0.000   0 0.000   0 0.000   0 0.000   0 0.000   0 0.000  0 0 
    210 "2_EPS500    " 500.00     213 "2_K__500    " 500.00  "2 "  1 "                                " :  1  0.001000  0.014500  1.540000    0.0    0.0    0.0    0.0 0.000    0.0 /
   2    1  0.000000  0.000000  1.000000   400101   391231   0 1  0    0.0    0.0    0.0    0.0   1 1.000   0 0.000   0 0.000   0 0.000   0 0.000   0 0.000   0 0.000   0 0.000  0 0 
    211 "2_SN_330    " 330.00     212 "2_SW_330    " 330.00  "1 "  1 "                                " :  1  0.001400  0.010800  0.133000    0.0    0.0    0.0    0.0 0.000    0.0 /
   2    1  0.000000  0.000000  1.000000   400101   391231   0 1  0    0.0    0.0    0.0    0.0   1 1.000   0 0.000   0 0.000   0 0.000   0 0.000   0 0.000   0 0.000   0 0.000  0 0 
    211 "2_SN_330    " 330.00     212 "2_SW_330    " 330.00  "2 "  1 "                                " :  1  0.001400  0.010800  0.133000    0.0    0.0    0.0    0.0 0.000    0.0 /
   2    1  0.000000  0.000000  1.000000   400101   391231   0 1  0    0.0    0.0    0.0    0.0   1 1.000   0 0.000   0 0.000   0 0.000   0 0.000   0 0.000   0 0.000   0 0.000  0 0 
    211 "2_SN_330    " 330.00     214 "2_K__330    " 330.00  "1 "  1 "                                " :  1  0.001900  0.015500  0.190000    0.0    0.0    0.0    0.0 0.000    0.0 /
   2    1  0.000000  0.000000  1.000000   400101   391231   0 1  0    0.0    0.0    0.0    0.0   1 1.000   0 0.000   0 0.000   0 0.000   0 0.000   0 0.000   0 0.000   0 0.000  0 0 
    212 "2_SW_330    " 330.00     217 "2_YC_330    " 330.00  "1 "  1 "                                " :  1  0.007000  0.055800  0.684000    0.0    0.0    0.0    0.0 0.000    0.0 /
   2    1  0.000000  0.000000  1.000000   400101   391231   0 1  0    0.0    0.0    0.0    0.0   1 1.000   0 0.000   0 0.000   0 0.000   0 0.000   0 0.000   0 0.000   0 0.000  0 0 
    214 "2_K__330    " 330.00     216 "2_SS_330    " 330.00  "1 "  1 "                                " :  1  0.001000  0.007700  0.095000    0.0    0.0    0.0    0.0 0.000    0.0 /
   2    1  0.000000  0.000000  1.000000   400101   391231   0 1  0    0.0    0.0    0.0    0.0   1 1.000   0 0.000   0 0.000   0 0.000   0 0.000   0 0.000   0 0.000   0 0.000  0 0 
    214 "2_K__330    " 330.00     217 "2_YC_330    " 330.00  "1 "  1 "                                " :  1  0.004900  0.038800  0.475000    0.0    0.0    0.0    0.0 0.000    0.0 /
   2    1  0.000000  0.000000  1.000000   400101   391231   0 1  0    0.0    0.0    0.0    0.0   1 1.000   0 0.000   0 0.000   0 0.000   0 0.000   0 0.000   0 0.000   0 0.000  0 0 
    215 "2_MPS330    " 330.00     216 "2_SS_330    " 330.00  "1 "  1 "                                " :  1  0.005100  0.040300  0.494000    0.0    0.0    0.0    0.0 0.000    0.0 /
   2    1  0.000000  0.000000  1.000000   400101   391231   0 1  0    0.0    0.0    0.0    0.0   1 1.000   0 0.000   0 0.000   0 0.000   0 0.000   0 0.000   0 0.000   0 0.000  0 0 
    215 "2_MPS330    " 330.00     216 "2_SS_330    " 330.00  "2 "  1 "                                " :  1  0.005100  0.040300  0.494000    0.0    0.0    0.0    0.0 0.000    0.0 /
   2    1  0.000000  0.000000  1.000000   400101   391231   0 1  0    0.0    0.0    0.0    0.0   1 1.000   0 0.000   0 0.000   0 0.000   0 0.000   0 0.000   0 0.000   0 0.000  0 0 
    215 "2_MPS330    " 330.00     217 "2_YC_330    " 330.00  "1 "  1 "                                " :  1  0.007200  0.057400  0.703000    0.0    0.0    0.0    0.0 0.000    0.0 /
   2    1  0.000000  0.000000  1.000000   400101   391231   0 1  0    0.0    0.0    0.0    0.0   1 1.000   0 0.000   0 0.000   0 0.000   0 0.000   0 0.000   0 0.000   0 0.000  0 0 
    215 "2_MPS330    " 330.00     217 "2_YC_330    " 330.00  "2 "  1 "                                " :  1  0.007200  0.057400  0.703000    0.0    0.0    0.0    0.0 0.000    0.0 /
   2    1  0.000000  0.000000  1.000000   400101   391231   0 1  0    0.0    0.0    0.0    0.0   1 1.000   0 0.000   0 0.000   0 0.000   0 0.000   0 0.000   0 0.000   0 0.000  0 0 
    216 "2_SS_330    " 330.00     217 "2_YC_330    " 330.00  "1 "  1 "                                " :  1  0.005100  0.040300  0.494000    0.0    0.0    0.0    0.0 0.000    0.0 /
   2    1  0.000000  0.000000  1.000000   400101   391231   0 1  0    0.0    0.0    0.0    0.0   1 1.000   0 0.000   0 0.000   0 0.000   0 0.000   0 0.000   0 0.000   0 0.000  0 0 
    303 "3_LPS500    " 500.00     304 "3_R__500    " 500.00  "1 "  1 "                                " :  1  0.002000  0.028000  0.740000    0.0    0.0    0.0    0.0 0.000    0.0 /
   3    1  0.000000  0.000000  1.000000   400101   391231   0 1  0    0.0    0.0    0.0    0.0   1 1.000   0 0.000   0 0.000   0 0.000   0 0.000   0 0.000   0 0.000   0 0.000  0 0 
    303 "3_LPS500    " 500.00     304 "3_R__500    " 500.00  "2 "  1 "                                " :  1  0.002000  0.028000  0.740000    0.0    0.0    0.0    0.0 0.000    0.0 /
   3    1  0.000000  0.000000  1.000000   400101   391231   0 1  0    0.0    0.0    0.0    0.0   1 1.000   0 0.000   0 0.000   0 0.000   0 0.000   0 0.000   0 0.000   0 0.000  0 0 
    303 "3_LPS500    " 500.00     305 "3_SM_500    " 500.00  "1 "  1 "                                " :  1  0.001100  0.016000  1.700000    0.0    0.0    0.0    0.0 0.000    0.0 /
   3    1  0.000000  0.000000  1.000000   400101   391231   0 1  0    0.0    0.0    0.0    0.0   1 1.000   0 0.000   0 0.000   0 0.000   0 0.000   0 0.000   0 0.000   0 0.000  0 0 
    303 "3_LPS500    " 500.00     305 "3_SM_500    " 500.00  "2 "  1 "                                " :  1  0.001100  0.016000  1.700000    0.0    0.0    0.0    0.0 0.000    0.0 /
   3    1  0.000000  0.000000  1.000000   400101   391231   0 1  0    0.0    0.0    0.0    0.0   1 1.000   0 0.000   0 0.000   0 0.000   0 0.000   0 0.000   0 0.000   0 0.000  0 0 
    304 "3_R__500    " 500.00     305 "3_SM_500    " 500.00  "1 "  1 "                                " :  1  0.000300  0.004000  0.424000    0.0    0.0    0.0    0.0 0.000    0.0 /
   3    1  0.000000  0.000000  1.000000   400101   391231   0 1  0    0.0    0.0    0.0    0.0   1 1.000   0 0.000   0 0.000   0 0.000   0 0.000   0 0.000   0 0.000   0 0.000  0 0 
    305 "3_SM_500    " 500.00     306 "3_K__500    " 500.00  "1 "  1 "                                " :  1  0.000200  0.003000  0.320000    0.0    0.0    0.0    0.0 0.000    0.0 /
   3    1  0.000000  0.000000  1.000000   400101   391231   0 1  0    0.0    0.0    0.0    0.0   1 1.000   0 0.000   0 0.000   0 0.000   0 0.000   0 0.000   0 0.000   0 0.000  0 0 
    305 "3_SM_500    " 500.00     307 "3_M__500    " 500.00  "1 "  1 "                                " :  1  0.000300  0.004500  0.447000    0.0    0.0    0.0    0.0 0.000    0.0 /
   3    1  0.000000  0.000000  1.000000   400101   391231   0 1  0    0.0    0.0    0.0    0.0   1 1.000   0 0.000   0 0.000   0 0.000   0 0.000   0 0.000   0 0.000   0 0.000  0 0 
    305 "3_SM_500    " 500.00     307 "3_M__500    " 500.00  "2 "  1 "                                " :  1  0.000300  0.004500  0.447000    0.0    0.0    0.0    0.0 0.000    0.0 /
   3    1  0.000000  0.000000  1.000000   400101   391231   0 1  0    0.0    0.0    0.0    0.0   1 1.000   0 0.000   0 0.000   0 0.000   0 0.000   0 0.000   0 0.000   0 0.000  0 0 
    306 "3_K__500    " 500.00     307 "3_M__500    " 500.00  "1 "  1 "                                " :  1  0.000100  0.001200  0.127000    0.0    0.0    0.0    0.0 0.000    0.0 /
   3    1  0.000000  0.000000  1.000000   400101   391231   0 1  0    0.0    0.0    0.0    0.0   1 1.000   0 0.000   0 0.000   0 0.000   0 0.000   0 0.000   0 0.000   0 0.000  0 0 
    307 "3_M__500    " 500.00     308 "3_H__500    " 500.00  "1 "  1 "                                " :  1  0.002300  0.032500  3.445000    0.0    0.0    0.0    0.0 0.000    0.0 /
   3    1  0.000000  0.000000  1.000000   400101   391231   0 1  0    0.0    0.0    0.0    0.0   1 1.000   0 0.000   0 0.000   0 0.000   0 0.000   0 0.000   0 0.000   0 0.000  0 0 
    307 "3_M__500    " 500.00     308 "3_H__500    " 500.00  "2 "  1 "                                " :  1  0.002300  0.032500  3.445000    0.0    0.0    0.0    0.0 0.000    0.0 /
   3    1  0.000000  0.000000  1.000000   400101   391231   0 1  0    0.0    0.0    0.0    0.0   1 1.000   0 0.000   0 0.000   0 0.000   0 0.000   0 0.000   0 0.000   0 0.000  0 0 
    309 "3_D__330    " 330.00     310 "3_SS_330    " 330.00  "1 "  1 "                                " :  1  0.013500  0.106950  0.582670    0.0    0.0    0.0    0.0 0.000    0.0 /
   3    1  0.000000  0.000000  1.000000   400101   391231   0 1  0    0.0    0.0    0.0    0.0   1 1.000   0 0.000   0 0.000   0 0.000   0 0.000   0 0.000   0 0.000   0 0.000  0 0 
    309 "3_D__330    " 330.00     310 "3_SS_330    " 330.00  "2 "  1 "                                " :  1  0.013500  0.106950  0.582670    0.0    0.0    0.0    0.0 0.000    0.0 /
   3    1  0.000000  0.000000  1.000000   400101   391231   0 1  0    0.0    0.0    0.0    0.0   1 1.000   0 0.000   0 0.000   0 0.000   0 0.000   0 0.000   0 0.000   0 0.000  0 0 
    309 "3_D__330    " 330.00     310 "3_SS_330    " 330.00  "3 "  1 "                                " :  1  0.013500  0.106950  0.582670    0.0    0.0    0.0    0.0 0.000    0.0 /
   3    1  0.000000  0.000000  1.000000   400101   391231   0 1  0    0.0    0.0    0.0    0.0   1 1.000   0 0.000   0 0.000   0 0.000   0 0.000   0 0.000   0 0.000   0 0.000  0 0 
    310 "3_SS_330    " 330.00     311 "3_SM_330    " 330.00  "1 "  1 "                                " :  1  0.000000 -0.033700  0.000000    0.0    0.0    0.0    0.0 0.000    0.0 /
   3    1  0.000000  0.000000  1.000000   400101   391231   0 1  0    0.0    0.0    0.0    0.0   1 1.000   0 0.000   0 0.000   0 0.000   0 0.000   0 0.000   0 0.000   0 0.000  0 0 
    310 "3_SS_330    " 330.00     311 "3_SM_330    " 330.00  "2 "  1 "                                " :  1  0.000000 -0.033700  0.000000    0.0    0.0    0.0    0.0 0.000    0.0 /
   3    1  0.000000  0.000000  1.000000   400101   391231   0 1  0    0.0    0.0    0.0    0.0   1 1.000   0 0.000   0 0.000   0 0.000   0 0.000   0 0.000   0 0.000   0 0.000  0 0 
    312 "3_YPS220    " 220.00     313 "3_RSV220    " 220.00  "1 "  1 "                                " :  1  0.006000  0.045000  0.300000    0.0    0.0    0.0    0.0 0.000    0.0 /
   3    1  0.000000  0.000000  1.000000   400101   391231   0 1  0    0.0    0.0    0.0    0.0   1 1.000   0 0.000   0 0.000   0 0.000   0 0.000   0 0.000   0 0.000   0 0.000  0 0 
    312 "3_YPS220    " 220.00     313 "3_RSV220    " 220.00  "2 "  1 "                                " :  1  0.006000  0.045000  0.300000    0.0    0.0    0.0    0.0 0.000    0.0 /
   3    1  0.000000  0.000000  1.000000   400101   391231   0 1  0    0.0    0.0    0.0    0.0   1 1.000   0 0.000   0 0.000   0 0.000   0 0.000   0 0.000   0 0.000   0 0.000  0 0 
    312 "3_YPS220    " 220.00     313 "3_RSV220    " 220.00  "3 "  1 "                                " :  1  0.006000  0.045000  0.300000    0.0    0.0    0.0    0.0 0.000    0.0 /
   3    1  0.000000  0.000000  1.000000   400101   391231   0 1  0    0.0    0.0    0.0    0.0   1 1.000   0 0.000   0 0.000   0 0.000   0 0.000   0 0.000   0 0.000   0 0.000  0 0 
    313 "3_RSV220    " 220.00     314 "3_SM_220    " 220.00  "1 "  1 "                                " :  1  0.001000  0.010000  0.260000    0.0    0.0    0.0    0.0 0.000    0.0 /
   3    1  0.000000  0.000000  1.000000   400101   391231   0 1  0    0.0    0.0    0.0    0.0   1 1.000   0 0.000   0 0.000   0 0.000   0 0.000   0 0.000   0 0.000   0 0.000  0 0 
    313 "3_RSV220    " 220.00     314 "3_SM_220    " 220.00  "2 "  1 "                                " :  1  0.001000  0.010000  0.260000    0.0    0.0    0.0    0.0 0.000    0.0 /
   3    1  0.000000  0.000000  1.000000   400101   391231   0 1  0    0.0    0.0    0.0    0.0   1 1.000   0 0.000   0 0.000   0 0.000   0 0.000   0 0.000   0 0.000   0 0.000  0 0 
    315 "3_H__275    " 275.00     509 "5_SSV275    " 275.00  "1 "  1 "                                " :  1  0.007000  0.050000  0.190000    0.0    0.0    0.0    0.0 0.000    0.0 /
   5    1  0.000000  0.000000  1.000000   400101   391231   0 1  0    0.0    0.0    0.0    0.0   1 1.000   0 0.000   0 0.000   0 0.000   0 0.000   0 0.000   0 0.000   0 0.000  0 0 
    315 "3_H__275    " 275.00     509 "5_SSV275    " 275.00  "2 "  1 "                                " :  1  0.007000  0.050000  0.190000    0.0    0.0    0.0    0.0 0.000    0.0 /
   5    1  0.000000  0.000000  1.000000   400101   391231   0 1  0    0.0    0.0    0.0    0.0   1 1.000   0 0.000   0 0.000   0 0.000   0 0.000   0 0.000   0 0.000   0 0.000  0 0 
    405 "4_GPS275    " 275.00     406 "4_N__275    " 275.00  "1 "  1 "                                " :  1  0.003900  0.047500  0.381000    0.0    0.0    0.0    0.0 0.000    0.0 /
   4    1  0.000000  0.000000  1.000000   400101   391231   0 1  0    0.0    0.0    0.0    0.0   1 1.000   0 0.000   0 0.000   0 0.000   0 0.000   0 0.000   0 0.000   0 0.000  0 0 
    405 "4_GPS275    " 275.00     406 "4_N__275    " 275.00  "2 "  1 "                                " :  1  0.003900  0.047500  0.381000    0.0    0.0    0.0    0.0 0.000    0.0 /
   4    1  0.000000  0.000000  1.000000   400101   391231   0 1  0    0.0    0.0    0.0    0.0   1 1.000   0 0.000   0 0.000   0 0.000   0 0.000   0 0.000   0 0.000   0 0.000  0 0 
    405 "4_GPS275    " 275.00     408 "4_CPS275    " 275.00  "1 "  1 "                                " :  1  0.005400  0.050000  0.189000    0.0    0.0    0.0    0.0 0.000    0.0 /
   4    1  0.000000  0.000000  1.000000   400101   391231   0 1  0    0.0    0.0    0.0    0.0   1 1.000   0 0.000   0 0.000   0 0.000   0 0.000   0 0.000   0 0.000   0 0.000  0 0 
    405 "4_GPS275    " 275.00     409 "4_W__275    " 275.00  "1 "  1 "                                " :  1  0.018000  0.122000  0.790000    0.0    0.0    0.0    0.0 0.000    0.0 /
   4    1  0.000000  0.000000  1.000000   400101   391231   0 1  0    0.0    0.0    0.0    0.0   1 1.000   0 0.000   0 0.000   0 0.000   0 0.000   0 0.000   0 0.000   0 0.000  0 0 
    405 "4_GPS275    " 275.00     409 "4_W__275    " 275.00  "2 "  1 "                                " :  1  0.018000  0.122000  0.790000    0.0    0.0    0.0    0.0 0.000    0.0 /
   4    1  0.000000  0.000000  1.000000   400101   391231   0 1  0    0.0    0.0    0.0    0.0   1 1.000   0 0.000   0 0.000   0 0.000   0 0.000   0 0.000   0 0.000   0 0.000  0 0 
    405 "4_GPS275    " 275.00     409 "4_W__275    " 275.00  "3 "  1 "                                " :  1  0.018000  0.122000  0.790000    0.0    0.0    0.0    0.0 0.000    0.0 /
   4    1  0.000000  0.000000  1.000000   400101   391231   0 1  0    0.0    0.0    0.0    0.0   1 1.000   0 0.000   0 0.000   0 0.000   0 0.000   0 0.000   0 0.000   0 0.000  0 0 
    406 "4_N__275    " 275.00     407 "4_SPS275    " 275.00  "1 "  1 "                                " :  1  0.000600  0.007600  0.062000    0.0    0.0    0.0    0.0 0.000    0.0 /
   4    1  0.000000  0.000000  1.000000   400101   391231   0 1  0    0.0    0.0    0.0    0.0   1 1.000   0 0.000   0 0.000   0 0.000   0 0.000   0 0.000   0 0.000   0 0.000  0 0 
    406 "4_N__275    " 275.00     407 "4_SPS275    " 275.00  "2 "  1 "                                " :  1  0.000600  0.007600  0.062000    0.0    0.0    0.0    0.0 0.000    0.0 /
   4    1  0.000000  0.000000  1.000000   400101   391231   0 1  0    0.0    0.0    0.0    0.0   1 1.000   0 0.000   0 0.000   0 0.000   0 0.000   0 0.000   0 0.000   0 0.000  0 0 
    407 "4_SPS275    " 275.00     408 "4_CPS275    " 275.00  "1 "  1 "                                " :  1  0.004200  0.051300  0.412000    0.0    0.0    0.0    0.0 0.000    0.0 /
   4    1  0.000000  0.000000  1.000000   400101   391231   0 1  0    0.0    0.0    0.0    0.0   1 1.000   0 0.000   0 0.000   0 0.000   0 0.000   0 0.000   0 0.000   0 0.000  0 0 
    408 "4_CPS275    " 275.00     410 "4_TPS275    " 275.00  "1 "  1 "                                " :  1  0.016500  0.192000  0.673330    0.0    0.0    0.0    0.0 0.000    0.0 /
   4    1  0.000000  0.000000  1.000000   400101   391231   0 1  0    0.0    0.0    0.0    0.0   1 1.000   0 0.000   0 0.000   0 0.000   0 0.000   0 0.000   0 0.000   0 0.000  0 0 
    408 "4_CPS275    " 275.00     410 "4_TPS275    " 275.00  "2 "  1 "                                " :  1  0.016500  0.192000  0.673330    0.0    0.0    0.0    0.0 0.000    0.0 /
   4    1  0.000000  0.000000  1.000000   400101   391231   0 1  0    0.0    0.0    0.0    0.0   1 1.000   0 0.000   0 0.000   0 0.000   0 0.000   0 0.000   0 0.000   0 0.000  0 0 
    408 "4_CPS275    " 275.00     410 "4_TPS275    " 275.00  "3 "  1 "                                " :  1  0.016500  0.192000  0.673330    0.0    0.0    0.0    0.0 0.000    0.0 /
   4    1  0.000000  0.000000  1.000000   400101   391231   0 1  0    0.0    0.0    0.0    0.0   1 1.000   0 0.000   0 0.000   0 0.000   0 0.000   0 0.000   0 0.000   0 0.000  0 0 
    409 "4_W__275    " 275.00     411 "4_SP_275    " 275.00  "1 "  1 "                                " :  1  0.010300  0.070900  0.460000    0.0    0.0    0.0    0.0 0.000    0.0 /
   4    1  0.000000  0.000000  1.000000   400101   391231   0 1  0    0.0    0.0    0.0    0.0   1 1.000   0 0.000   0 0.000   0 0.000   0 0.000   0 0.000   0 0.000   0 0.000  0 0 
    409 "4_W__275    " 275.00     411 "4_SP_275    " 275.00  "2 "  1 "                                " :  1  0.010300  0.070900  0.460000    0.0    0.0    0.0    0.0 0.000    0.0 /
   4    1  0.000000  0.000000  1.000000   400101   391231   0 1  0    0.0    0.0    0.0    0.0   1 1.000   0 0.000   0 0.000   0 0.000   0 0.000   0 0.000   0 0.000   0 0.000  0 0 
    410 "4_TPS275    " 275.00     411 "4_SP_275    " 275.00  "1 "  1 "                                " :  1  0.004300  0.053200  0.427000    0.0    0.0    0.0    0.0 0.000    0.0 /
   4    1  0.000000  0.000000  1.000000   400101   391231   0 1  0    0.0    0.0    0.0    0.0   1 1.000   0 0.000   0 0.000   0 0.000   0 0.000   0 0.000   0 0.000   0 0.000  0 0 
    410 "4_TPS275    " 275.00     412 "4_BW_275    " 275.00  "1 "  1 "                                " :  1  0.004300  0.053200  0.427000    0.0    0.0    0.0    0.0 0.000    0.0 /
   4    1  0.000000  0.000000  1.000000   400101   391231   0 1  0    0.0    0.0    0.0    0.0   1 1.000   0 0.000   0 0.000   0 0.000   0 0.000   0 0.000   0 0.000   0 0.000  0 0 
    410 "4_TPS275    " 275.00     412 "4_BW_275    " 275.00  "2 "  1 "                                " :  1  0.004300  0.053200  0.427000    0.0    0.0    0.0    0.0 0.000    0.0 /
   4    1  0.000000  0.000000  1.000000   400101   391231   0 1  0    0.0    0.0    0.0    0.0   1 1.000   0 0.000   0 0.000   0 0.000   0 0.000   0 0.000   0 0.000   0 0.000  0 0 
    410 "4_TPS275    " 275.00     412 "4_BW_275    " 275.00  "3 "  1 "                                " :  1  0.004300  0.053200  0.427000    0.0    0.0    0.0    0.0 0.000    0.0 /
   4    1  0.000000  0.000000  1.000000   400101   391231   0 1  0    0.0    0.0    0.0    0.0   1 1.000   0 0.000   0 0.000   0 0.000   0 0.000   0 0.000   0 0.000   0 0.000  0 0 
    410 "4_TPS275    " 275.00     412 "4_BW_275    " 275.00  "4 "  1 "                                " :  1  0.004300  0.053200  0.427000    0.0    0.0    0.0    0.0 0.000    0.0 /
   4    1  0.000000  0.000000  1.000000   400101   391231   0 1  0    0.0    0.0    0.0    0.0   1 1.000   0 0.000   0 0.000   0 0.000   0 0.000   0 0.000   0 0.000   0 0.000  0 0 
    410 "4_TPS275    " 275.00     413 "4_BR_275    " 275.00  "1 "  1 "                                " :  1  0.004000  0.049400  0.400000    0.0    0.0    0.0    0.0 0.000    0.0 /
   4    1  0.000000  0.000000  1.000000   400101   391231   0 1  0    0.0    0.0    0.0    0.0   1 1.000   0 0.000   0 0.000   0 0.000   0 0.000   0 0.000   0 0.000   0 0.000  0 0 
    410 "4_TPS275    " 275.00     413 "4_BR_275    " 275.00  "2 "  1 "                                " :  1  0.004000  0.049400  0.400000    0.0    0.0    0.0    0.0 0.000    0.0 /
   4    1  0.000000  0.000000  1.000000   400101   391231   0 1  0    0.0    0.0    0.0    0.0   1 1.000   0 0.000   0 0.000   0 0.000   0 0.000   0 0.000   0 0.000   0 0.000  0 0 
    411 "4_SP_275    " 275.00     412 "4_BW_275    " 275.00  "1 "  1 "                                " :  1  0.001200  0.015200  0.122000    0.0    0.0    0.0    0.0 0.000    0.0 /
   4    1  0.000000  0.000000  1.000000   400101   391231   0 1  0    0.0    0.0    0.0    0.0   1 1.000   0 0.000   0 0.000   0 0.000   0 0.000   0 0.000   0 0.000   0 0.000  0 0 
    411 "4_SP_275    " 275.00     412 "4_BW_275    " 275.00  "2 "  1 "                                " :  1  0.001200  0.015200  0.122000    0.0    0.0    0.0    0.0 0.000    0.0 /
   4    1  0.000000  0.000000  1.000000   400101   391231   0 1  0    0.0    0.0    0.0    0.0   1 1.000   0 0.000   0 0.000   0 0.000   0 0.000   0 0.000   0 0.000   0 0.000  0 0 
    414 "4_BR_330    " 330.00     415 "4_BU_330    " 330.00  "1 "  1 "                                " :  1  0.002000  0.025000  0.390000    0.0    0.0    0.0    0.0 0.000    0.0 /
   4    1  0.000000  0.000000  1.000000   400101   391231   0 1  0    0.0    0.0    0.0    0.0   1 1.000   0 0.000   0 0.000   0 0.000   0 0.000   0 0.000   0 0.000   0 0.000  0 0 
    414 "4_BR_330    " 330.00     415 "4_BU_330    " 330.00  "2 "  1 "                                " :  1  0.002000  0.025000  0.390000    0.0    0.0    0.0    0.0 0.000    0.0 /
   4    1  0.000000  0.000000  1.000000   400101   391231   0 1  0    0.0    0.0    0.0    0.0   1 1.000   0 0.000   0 0.000   0 0.000   0 0.000   0 0.000   0 0.000   0 0.000  0 0 
    415 "4_BU_330    " 330.00     416 "4_DU_330    " 330.00  "1 "  1 "                                " :  1  0.003700  0.046000  0.730000    0.0    0.0    0.0    0.0 0.000    0.0 /
   4    1  0.000000  0.000000  1.000000   400101   391231   0 1  0    0.0    0.0    0.0    0.0   1 1.000   0 0.000   0 0.000   0 0.000   0 0.000   0 0.000   0 0.000   0 0.000  0 0 
    415 "4_BU_330    " 330.00     416 "4_DU_330    " 330.00  "2 "  1 "                                " :  1  0.003700  0.046000  0.730000    0.0    0.0    0.0    0.0 0.000    0.0 /
   4    1  0.000000  0.000000  1.000000   400101   391231   0 1  0    0.0    0.0    0.0    0.0   1 1.000   0 0.000   0 0.000   0 0.000   0 0.000   0 0.000   0 0.000   0 0.000  0 0 
    504 "5_D__275    " 275.00     507 "5_PSV275    " 275.00  "1 "  1 "                                " :  1  0.023000  0.150000  0.560000    0.0    0.0    0.0    0.0 0.000    0.0 /
   5    1  0.000000  0.000000  1.000000   400101   391231   0 1  0    0.0    0.0    0.0    0.0   1 1.000   0 0.000   0 0.000   0 0.000   0 0.000   0 0.000   0 0.000   0 0.000  0 0 
    504 "5_D__275    " 275.00     507 "5_PSV275    " 275.00  "2 "  1 "                                " :  1  0.023000  0.150000  0.560000    0.0    0.0    0.0    0.0 0.000    0.0 /
   5    1  0.000000  0.000000  1.000000   400101   391231   0 1  0    0.0    0.0    0.0    0.0   1 1.000   0 0.000   0 0.000   0 0.000   0 0.000   0 0.000   0 0.000   0 0.000  0 0 
    504 "5_D__275    " 275.00     508 "5_CG_275    " 275.00  "1 "  1 "                                " :  1  0.026000  0.019000  0.870000    0.0    0.0    0.0    0.0 0.000    0.0 /
   5    1  0.000000  0.000000  1.000000   400101   391231   0 1  0    0.0    0.0    0.0    0.0   1 1.000   0 0.000   0 0.000   0 0.000   0 0.000   0 0.000   0 0.000   0 0.000  0 0 
    504 "5_D__275    " 275.00     508 "5_CG_275    " 275.00  "2 "  1 "                                " :  1  0.026000  0.019000  0.870000    0.0    0.0    0.0    0.0 0.000    0.0 /
   5    1  0.000000  0.000000  1.000000   400101   391231   0 1  0    0.0    0.0    0.0    0.0   1 1.000   0 0.000   0 0.000   0 0.000   0 0.000   0 0.000   0 0.000   0 0.000  0 0 
    505 "5_TPS275    " 275.00     507 "5_PSV275    " 275.00  "1 "  1 "                                " :  1  0.001600  0.017000  0.030000    0.0    0.0    0.0    0.0 0.000    0.0 /
   5    1  0.000000  0.000000  1.000000   400101   391231   0 1  0    0.0    0.0    0.0    0.0   1 1.000   0 0.000   0 0.000   0 0.000   0 0.000   0 0.000   0 0.000   0 0.000  0 0 
    505 "5_TPS275    " 275.00     507 "5_PSV275    " 275.00  "2 "  1 "                                " :  1  0.001600  0.017000  0.030000    0.0    0.0    0.0    0.0 0.000    0.0 /
   5    1  0.000000  0.000000  1.000000   400101   391231   0 1  0    0.0    0.0    0.0    0.0   1 1.000   0 0.000   0 0.000   0 0.000   0 0.000   0 0.000   0 0.000   0 0.000  0 0 
    505 "5_TPS275    " 275.00     508 "5_CG_275    " 275.00  "1 "  1 "                                " :  1  0.002500  0.028000  0.170000    0.0    0.0    0.0    0.0 0.000    0.0 /
   5    1  0.000000  0.000000  1.000000   400101   391231   0 1  0    0.0    0.0    0.0    0.0   1 1.000   0 0.000   0 0.000   0 0.000   0 0.000   0 0.000   0 0.000   0 0.000  0 0 
    506 "5_PPS275    " 275.00     507 "5_PSV275    " 275.00  "1 "  1 "                                " :  1  0.001600  0.017000  0.030000    0.0    0.0    0.0    0.0 0.000    0.0 /
   5    1  0.000000  0.000000  1.000000   400101   391231   0 1  0    0.0    0.0    0.0    0.0   1 1.000   0 0.000   0 0.000   0 0.000   0 0.000   0 0.000   0 0.000   0 0.000  0 0 
    506 "5_PPS275    " 275.00     507 "5_PSV275    " 275.00  "2 "  1 "                                " :  1  0.001600  0.017000  0.030000    0.0    0.0    0.0    0.0 0.000    0.0 /
   5    1  0.000000  0.000000  1.000000   400101   391231   0 1  0    0.0    0.0    0.0    0.0   1 1.000   0 0.000   0 0.000   0 0.000   0 0.000   0 0.000   0 0.000   0 0.000  0 0 
    506 "5_PPS275    " 275.00     508 "5_CG_275    " 275.00  "1 "  1 "                                " :  1  0.003000  0.028000  0.140000    0.0    0.0    0.0    0.0 0.000    0.0 /
   5    1  0.000000  0.000000  1.000000   400101   391231   0 1  0    0.0    0.0    0.0    0.0   1 1.000   0 0.000   0 0.000   0 0.000   0 0.000   0 0.000   0 0.000   0 0.000  0 0 
    507 "5_PSV275    " 275.00     508 "5_CG_275    " 275.00  "1 "  1 "                                " :  1  0.002000  0.019000  0.090000    0.0    0.0    0.0    0.0 0.000    0.0 /
   5    1  0.000000  0.000000  1.000000   400101   391231   0 1  0    0.0    0.0    0.0    0.0   1 1.000   0 0.000   0 0.000   0 0.000   0 0.000   0 0.000   0 0.000   0 0.000  0 0 
    507 "5_PSV275    " 275.00     509 "5_SSV275    " 275.00  "1 "  1 "                                " :  1  0.090000  0.660000  0.300000    0.0    0.0    0.0    0.0 0.000    0.0 /
   5    1  0.000000  0.000000  1.000000   400101   391231   0 1  0    0.0    0.0    0.0    0.0   1 1.000   0 0.000   0 0.000   0 0.000   0 0.000   0 0.000   0 0.000   0 0.000  0 0 
    507 "5_PSV275    " 275.00     509 "5_SSV275    " 275.00  "2 "  1 "                                " :  1  0.090000  0.660000  0.300000    0.0    0.0    0.0    0.0 0.000    0.0 /
   5    1  0.000000  0.000000  1.000000   400101   391231   0 1  0    0.0    0.0    0.0    0.0   1 1.000   0 0.000   0 0.000   0 0.000   0 0.000   0 0.000   0 0.000   0 0.000  0 0 
...
transformer data  [  34]                                     ck   ------------long_id_------------     st ty --no---    reg_name          zt         int                              tert                   ar zone  tbase   ps_r    ps_x    pt_r    pt_x    ts_r    ts_x
    101 "1_HPSGEN    "  15.00     102 "1_HPS330    " 330.00  "1 " "                                " :  1  1       0 "            "   0.00  0       0 "            "   0.00       0 "            "   0.00    1    1 100.000000 0.000000E+000 1.800000E-002 0.000000E+000 0.000000E+000 0.000000E+000 0.000000E+000 /
 15.000000 330.000000  0.000000  0.000000 0.000000E+000 0.000000E+000    0.0    0.0    0.0    0.0 0.000  1.100000  0.900000  1.100000  0.900000 -0.006250  1.000000  1.000000  1.000000  1.000000   400101   391231   0 1     0.0    0.0    0.0    0.0 /
   1 1.000   0 0.000   0 0.000   0 0.000   0 0.000   0 0.000   0 0.000   0 0.000  0 /
   0.000000   0.000000  0.000000  0.000000     0.0    0.0    0.0     0.0    0.0    0.0 0.000 0.000  0  0  0 0.0000 0.0000 0 
    201 "2_BPSGEN    "  20.00     206 "2_BPS330    " 330.00  "1 " "                                " :  1  1       0 "            "   0.00  0       0 "            "   0.00       0 "            "   0.00    2    1 100.000000 0.000000E+000 6.000000E-003 0.000000E+000 0.000000E+000 0.000000E+000 0.000000E+000 /
 20.000000 330.000000  0.000000  0.000000 0.000000E+000 0.000000E+000    0.0    0.0    0.0    0.0 0.000  1.100000  0.900000  1.100000  0.900000 -0.006250  1.000000  1.000000  1.000000  1.000000   400101   391231   0 1     0.0    0.0    0.0    0.0 /
   1 1.000   0 0.000   0 0.000   0 0.000   0 0.000   0 0.000   0 0.000   0 0.000  0 /
   0.000000   0.000000  0.000000  0.000000     0.0    0.0    0.0     0.0    0.0    0.0 0.000 0.000  0  0  0 0.0000 0.0000 0 
    202 "2_EPSGEN    "  20.00     209 "2_EPS330    " 330.00  "1 " "                                " :  1  1       0 "            "   0.00  0       0 "            "   0.00       0 "            "   0.00    2    1 100.000000 0.000000E+000 9.600000E-003 0.000000E+000 0.000000E+000 0.000000E+000 0.000000E+000 /
 20.000000 330.000000  0.000000  0.000000 0.000000E+000 0.000000E+000    0.0    0.0    0.0    0.0 0.000  1.100000  0.900000  1.100000  0.900000 -0.006250  1.000000  1.000000  1.000000  1.000000   400101   391231   0 1     0.0    0.0    0.0    0.0 /
   1 1.000   0 0.000   0 0.000   0 0.000   0 0.000   0 0.000   0 0.000   0 0.000  0 /
   0.000000   0.000000  0.000000  0.000000     0.0    0.0    0.0     0.0    0.0    0.0 0.000 0.000  0  0  0 0.0000 0.0000 0 
    203 "2_VPSGEN    "  20.00     208 "2_VPS330    " 330.00  "1 " "                                " :  1  1       0 "            "   0.00  0       0 "            "   0.00       0 "            "   0.00    2    1 100.000000 0.000000E+000 1.020000E-002 0.000000E+000 0.000000E+000 0.000000E+000 0.000000E+000 /
 20.000000 330.000000  0.000000  0.000000 0.000000E+000 0.000000E+000    0.0    0.0    0.0    0.0 0.000  1.100000  0.900000  1.100000  0.900000 -0.006250  1.000000  1.000000  1.000000  1.000000   400101   391231   0 1     0.0    0.0    0.0    0.0 /
   1 1.000   0 0.000   0 0.000   0 0.000   0 0.000   0 0.000   0 0.000   0 0.000  0 /
   0.000000   0.000000  0.000000  0.000000     0.0    0.0    0.0     0.0    0.0    0.0 0.000 0.000  0  0  0 0.0000 0.0000 0 
    204 "2_MPSGEN    "  20.00     215 "2_MPS330    " 330.00  "1 " "                                " :  1  1       0 "            "   0.00  0       0 "            "   0.00       0 "            "   0.00    2    1 100.000000 0.000000E+000 6.000000E-003 0.000000E+000 0.000000E+000 0.000000E+000 0.000000E+000 /
 20.000000 330.000000  0.000000  0.000000 0.000000E+000 0.000000E+000    0.0    0.0    0.0    0.0 0.000  1.100000  0.900000  1.100000  0.900000 -0.006250  1.000000  1.000000  1.000000  1.000000   400101   391231   0 1     0.0    0.0    0.0    0.0 /
   1 1.000   0 0.000   0 0.000   0 0.000   0 0.000   0 0.000   0 0.000   0 0.000  0 /
   0.000000   0.000000  0.000000  0.000000     0.0    0.0    0.0     0.0    0.0    0.0 0.000 0.000  0  0  0 0.0000 0.0000 0 
    209 "2_EPS330    " 330.00     210 "2_EPS500    " 500.00  "1 " "                                " :  1  1       0 "            "   0.00  0       0 "            "   0.00       0 "            "   0.00    2    1 100.000000 0.000000E+000 2.720000E-002 0.000000E+000 0.000000E+000 0.000000E+000 0.000000E+000 /
 330.000000 500.000000  0.000000  0.000000 0.000000E+000 0.000000E+000    0.0    0.0    0.0    0.0 0.000  1.100000  0.900000  1.100000  0.900000 -0.006250  0.975600  1.000000  1.000000  1.000000   400101   391231   0 1     0.0    0.0    0.0    0.0 /
   1 1.000   0 0.000   0 0.000   0 0.000   0 0.000   0 0.000   0 0.000   0 0.000  0 /
   0.000000   0.000000  0.000000  0.000000     0.0    0.0    0.0     0.0    0.0    0.0 0.000 0.000  0  0  0 0.0000 0.0000 0 
    209 "2_EPS330    " 330.00     210 "2_EPS500    " 500.00  "2 " "                                " :  1  1       0 "            "   0.00  0       0 "            "   0.00       0 "            "   0.00    2    1 100.000000 0.000000E+000 2.720000E-002 0.000000E+000 0.000000E+000 0.000000E+000 0.000000E+000 /
 330.000000 500.000000  0.000000  0.000000 0.000000E+000 0.000000E+000    0.0    0.0    0.0    0.0 0.000  1.100000  0.900000  1.100000  0.900000 -0.006250  0.975600  1.000000  1.000000  1.000000   400101   391231   0 1     0.0    0.0    0.0    0.0 /
   1 1.000   0 0.000   0 0.000   0 0.000   0 0.000   0 0.000   0 0.000   0 0.000  0 /
   0.000000   0.000000  0.000000  0.000000     0.0    0.0    0.0     0.0    0.0    0.0 0.000 0.000  0  0  0 0.0000 0.0000 0 
    209 "2_EPS330    " 330.00     210 "2_EPS500    " 500.00  "3 " "                                " :  1  1       0 "            "   0.00  0       0 "            "   0.00       0 "            "   0.00    2    1 100.000000 0.000000E+000 2.720000E-002 0.000000E+000 0.000000E+000 0.000000E+000 0.000000E+000 /
 330.000000 500.000000  0.000000  0.000000 0.000000E+000 0.000000E+000    0.0    0.0    0.0    0.0 0.000  1.100000  0.900000  1.100000  0.900000 -0.006250  0.975600  1.000000  1.000000  1.000000   400101   391231   0 1     0.0    0.0    0.0    0.0 /
   1 1.000   0 0.000   0 0.000   0 0.000   0 0.000   0 0.000   0 0.000   0 0.000  0 /
   0.000000   0.000000  0.000000  0.000000     0.0    0.0    0.0     0.0    0.0    0.0 0.000 0.000  0  0  0 0.0000 0.0000 0 
    209 "2_EPS330    " 330.00     210 "2_EPS500    " 500.00  "4 " "                                " :  1  1       0 "            "   0.00  0       0 "            "   0.00       0 "            "   0.00    2    1 100.000000 0.000000E+000 2.720000E-002 0.000000E+000 0.000000E+000 0.000000E+000 0.000000E+000 /
 330.000000 500.000000  0.000000  0.000000 0.000000E+000 0.000000E+000    0.0    0.0    0.0    0.0 0.000  1.100000  0.900000  1.100000  0.900000 -0.006250  0.975600  1.000000  1.000000  1.000000   400101   391231   0 1     0.0    0.0    0.0    0.0 /
   1 1.000   0 0.000   0 0.000   0 0.000   0 0.000   0 0.000   0 0.000   0 0.000  0 /
   0.000000   0.000000  0.000000  0.000000     0.0    0.0    0.0     0.0    0.0    0.0 0.000 0.000  0  0  0 0.0000 0.0000 0 
    213 "2_K__500    " 500.00     214 "2_K__330    " 330.00  "1 " "                                " :  1  1       0 "            "   0.00  0       0 "            "   0.00       0 "            "   0.00    2    1 100.000000 0.000000E+000 2.720000E-002 0.000000E+000 0.000000E+000 0.000000E+000 0.000000E+000 /
 500.000000 330.000000  0.000000  0.000000 0.000000E+000 0.000000E+000    0.0    0.0    0.0    0.0 0.000  1.100000  0.900000  1.100000  0.900000 -0.006250  1.000000  1.000000  1.000000  1.000000   400101   391231   0 1     0.0    0.0    0.0    0.0 /
   1 1.000   0 0.000   0 0.000   0 0.000   0 0.000   0 0.000   0 0.000   0 0.000  0 /
   0.000000   0.000000  0.000000  0.000000     0.0    0.0    0.0     0.0    0.0    0.0 0.000 0.000  0  0  0 0.0000 0.0000 0 
    213 "2_K__500    " 500.00     214 "2_K__330    " 330.00  "2 " "                                " :  1  1       0 "            "   0.00  0       0 "            "   0.00       0 "            "   0.00    2    1 100.000000 0.000000E+000 2.720000E-002 0.000000E+000 0.000000E+000 0.000000E+000 0.000000E+000 /
 500.000000 330.000000  0.000000  0.000000 0.000000E+000 0.000000E+000    0.0    0.0    0.0    0.0 0.000  1.100000  0.900000  1.100000  0.900000 -0.006250  1.000000  1.000000  1.000000  1.000000   400101   391231   0 1     0.0    0.0    0.0    0.0 /
   1 1.000   0 0.000   0 0.000   0 0.000   0 0.000   0 0.000   0 0.000   0 0.000  0 /
   0.000000   0.000000  0.000000  0.000000     0.0    0.0    0.0     0.0    0.0    0.0 0.000 0.000  0  0  0 0.0000 0.0000 0 
    213 "2_K__500    " 500.00     214 "2_K__330    " 330.00  "3 " "                                " :  1  1       0 "            "   0.00  0       0 "            "   0.00       0 "            "   0.00    2    1 100.000000 0.000000E+000 2.720000E-002 0.000000E+000 0.000000E+000 0.000000E+000 0.000000E+000 /
 500.000000 330.000000  0.000000  0.000000 0.000000E+000 0.000000E+000    0.0    0.0    0.0    0.0 0.000  1.100000  0.900000  1.100000  0.900000 -0.006250  1.000000  1.000000  1.000000  1.000000   400101   391231   0 1     0.0    0.0    0.0    0.0 /
   1 1.000   0 0.000   0 0.000   0 0.000   0 0.000   0 0.000   0 0.000   0 0.000  0 /
   0.000000   0.000000  0.000000  0.000000     0.0    0.0    0.0     0.0    0.0    0.0 0.000 0.000  0  0  0 0.0000 0.0000 0 
    213 "2_K__500    " 500.00     214 "2_K__330    " 330.00  "4 " "                                " :  1  1       0 "            "   0.00  0       0 "            "   0.00       0 "            "   0.00    2    1 100.000000 0.000000E+000 2.720000E-002 0.000000E+000 0.000000E+000 0.000000E+000 0.000000E+000 /
 500.000000 330.000000  0.000000  0.000000 0.000000E+000 0.000000E+000    0.0    0.0    0.0    0.0 0.000  1.100000  0.900000  1.100000  0.900000 -0.006250  1.000000  1.000000  1.000000  1.000000   400101   391231   0 1     0.0    0.0    0.0    0.0 /
   1 1.000   0 0.000   0 0.000   0 0.000   0 0.000   0 0.000   0 0.000   0 0.000  0 /
   0.000000   0.000000  0.000000  0.000000     0.0    0.0    0.0     0.0    0.0    0.0 0.000 0.000  0  0  0 0.0000 0.0000 0 
    301 "3_LPSGEN    "  20.00     303 "3_LPS500    " 500.00  "1 " "                                " :  1  1       0 "            "   0.00  0       0 "            "   0.00       0 "            "   0.00    3    1 100.000000 0.000000E+000 4.000000E-003 0.000000E+000 0.000000E+000 0.000000E+000 0.000000E+000 /
 20.000000 500.000000  0.000000  0.000000 0.000000E+000 0.000000E+000    0.0    0.0    0.0    0.0 0.000  1.100000  0.900000  1.100000  0.900000 -0.006250  1.000000  1.000000  1.000000  1.000000   400101   391231   0 1     0.0    0.0    0.0    0.0 /
   1 1.000   0 0.000   0 0.000   0 0.000   0 0.000   0 0.000   0 0.000   0 0.000  0 /
   0.000000   0.000000  0.000000  0.000000     0.0    0.0    0.0     0.0    0.0    0.0 0.000 0.000  0  0  0 0.0000 0.0000 0 
    302 "3_YPSGEN    "  20.00     312 "3_YPS220    " 220.00  "1 " "                                " :  1  1       0 "            "   0.00  0       0 "            "   0.00       0 "            "   0.00    3    1 100.000000 0.000000E+000 1.690000E-002 0.000000E+000 0.000000E+000 0.000000E+000 0.000000E+000 /
 20.000000 220.000000  0.000000  0.000000 0.000000E+000 0.000000E+000    0.0    0.0    0.0    0.0 0.000  1.100000  0.900000  1.100000  0.900000 -0.006250  1.000000  1.000000  1.000000  1.000000   400101   391231   0 1     0.0    0.0    0.0    0.0 /
   1 1.000   0 0.000   0 0.000   0 0.000   0 0.000   0 0.000   0 0.000   0 0.000  0 /
   0.000000   0.000000  0.000000  0.000000     0.0    0.0    0.0     0.0    0.0    0.0 0.000 0.000  0  0  0 0.0000 0.0000 0 
    304 "3_R__500    " 500.00     313 "3_RSV220    " 220.00  "1 " "                                " :  1  1       0 "            "   0.00  0       0 "            "   0.00       0 "            "   0.00    3    1 100.000000 0.000000E+000 3.200000E-002 0.000000E+000 0.000000E+000 0.000000E+000 0.000000E+000 /
 500.000000 220.000000  0.000000  0.000000 0.000000E+000 0.000000E+000    0.0    0.0    0.0    0.0 0.000  1.100000  0.900000  1.100000  0.900000 -0.006250  0.961500  1.000000  1.000000  1.000000   400101   391231   0 1     0.0    0.0    0.0    0.0 /
   1 1.000   0 0.000   0 0.000   0 0.000   0 0.000   0 0.000   0 0.000   0 0.000  0 /
...